[General]

sim-time-limit = ${simtime=1s, 2s, 5s, 10s, 20s, 50s, 1min, 2min, 5min, 10min, 20min, 30min, 1h, 2h}