[General]
network = designtest.DataGeneration

sim-time-limit = 1min
total-stack = 7MiB 

ned-path = ../src

DataGeneration.generator.generationInterval = 100us
DataGeneration.sink.historyPollingInterval = 100us
DataGeneration.**.numberOfEventManager = 1

[Config Monolithic]
DataGeneration.sinkType = "MonolithicSink"

[Config Modular]
DataGeneration.sinkType = "ModularSink"