[General]
network = designtest.DataGeneration

sim-time-limit = 10000s
total-stack = 7MiB 

ned-path = ../src

DataGeneration.**.channelDelay = 1ms

# real time
#scheduler-class = "cRealTimeScheduler"

[Config Monolithic]
DataGeneration.sinkType = "MonolithicSink"

[Config Modular]
DataGeneration.sinkType = "ModularSink"