[General]
network = designtest.DataGeneration

sim-time-limit = 50000s 
total-stack = 7MiB  # increase if necessary